12

H 0.0, 1.7320508075688774, 0.9999999999999999
H 0.0, 1.0000000000000002, 1.7320508075688772
H 0.0, 1.2246467991473532e-16, 2.0
H 0.0, -0.9999999999999996, 1.7320508075688774
H 0.0, -1.7320508075688774, 0.9999999999999999
H 0.0, -2.0, 2.4492935982947064e-16 
H 0.0, -1.7320508075688776, -0.9999999999999994
H 0.0, -1.0000000000000009, -1.732050807568877
H 0.0, -3.6739403974420594e-16, -2.0
H 0.0, 1.0000000000000002, -1.7320508075688772
H 0.0, 1.7320508075688767, -1.0000000000000009
H 0.0, 2.0, -4.898587196589413e-16
