    8

     H       0.0000000000000000       0.0000000000000000       0.0000000000000000 
     H       0.0000000000000000       0.0000000000000000       0.7500000000000000 
     H       0.0000000000000000       1.1000000000000001       1.5000000000000000 
     H       0.0000000000000000       1.1000000000000001       2.2500000000000000 
     H       0.0000000000000000       2.2000000000000002       3.0000000000000000 
     H       0.0000000000000000       2.2000000000000002       3.7500000000000000 
     H       0.0000000000000000       3.3000000000000003       4.5000000000000000 
     H       0.0000000000000000       3.3000000000000003       5.2500000000000000 
    8

     H       0.0000000000000000       0.0000000000000000       0.0000000000000000 
     H       0.0000000000000000       0.0000000000000000       0.7500000000000000 
     H       0.0000000000000000       1.2000000000000000       1.5000000000000000 
     H       0.0000000000000000       1.2000000000000000       2.2500000000000000 
     H       0.0000000000000000       2.3999999999999999       3.0000000000000000 
     H       0.0000000000000000       2.3999999999999999       3.7500000000000000 
     H       0.0000000000000000       3.5999999999999996       4.5000000000000000 
     H       0.0000000000000000       3.5999999999999996       5.2500000000000000 
    8

     H       0.0000000000000000       0.0000000000000000       0.0000000000000000 
     H       0.0000000000000000       0.0000000000000000       0.7500000000000000 
     H       0.0000000000000000       1.3000000000000000       1.5000000000000000 
     H       0.0000000000000000       1.3000000000000000       2.2500000000000000 
     H       0.0000000000000000       2.6000000000000001       3.0000000000000000 
     H       0.0000000000000000       2.6000000000000001       3.7500000000000000 
     H       0.0000000000000000       3.9000000000000004       4.5000000000000000 
     H       0.0000000000000000       3.9000000000000004       5.2500000000000000 
    8

     H       0.0000000000000000       0.0000000000000000       0.0000000000000000 
     H       0.0000000000000000       0.0000000000000000       0.7500000000000000 
     H       0.0000000000000000       1.3999999999999999       1.5000000000000000 
     H       0.0000000000000000       1.3999999999999999       2.2500000000000000 
     H       0.0000000000000000       2.7999999999999998       3.0000000000000000 
     H       0.0000000000000000       2.7999999999999998       3.7500000000000000 
     H       0.0000000000000000       4.1999999999999993       4.5000000000000000 
     H       0.0000000000000000       4.1999999999999993       5.2500000000000000 
    8

     H       0.0000000000000000       0.0000000000000000       0.0000000000000000 
     H       0.0000000000000000       0.0000000000000000       0.7500000000000000 
     H       0.0000000000000000       1.5000000000000000       1.5000000000000000 
     H       0.0000000000000000       1.5000000000000000       2.2500000000000000 
     H       0.0000000000000000       3.0000000000000000       3.0000000000000000 
     H       0.0000000000000000       3.0000000000000000       3.7500000000000000 
     H       0.0000000000000000       4.5000000000000000       4.5000000000000000 
     H       0.0000000000000000       4.5000000000000000       5.2500000000000000 
    8

     H       0.0000000000000000       0.0000000000000000       0.0000000000000000 
     H       0.0000000000000000       0.0000000000000000       0.7500000000000000 
     H       0.0000000000000000       1.6000000000000001       1.5000000000000000 
     H       0.0000000000000000       1.6000000000000001       2.2500000000000000 
     H       0.0000000000000000       3.2000000000000002       3.0000000000000000 
     H       0.0000000000000000       3.2000000000000002       3.7500000000000000 
     H       0.0000000000000000       4.8000000000000007       4.5000000000000000 
     H       0.0000000000000000       4.8000000000000007       5.2500000000000000 
    8

     H       0.0000000000000000       0.0000000000000000       0.0000000000000000 
     H       0.0000000000000000       0.0000000000000000       0.7500000000000000 
     H       0.0000000000000000       1.7000000000000002       1.5000000000000000 
     H       0.0000000000000000       1.7000000000000002       2.2500000000000000 
     H       0.0000000000000000       3.4000000000000004       3.0000000000000000 
     H       0.0000000000000000       3.4000000000000004       3.7500000000000000 
     H       0.0000000000000000       5.1000000000000005       4.5000000000000000 
     H       0.0000000000000000       5.1000000000000005       5.2500000000000000 
    8

     H       0.0000000000000000       0.0000000000000000       0.0000000000000000 
     H       0.0000000000000000       0.0000000000000000       0.7500000000000000 
     H       0.0000000000000000       1.8000000000000000       1.5000000000000000 
     H       0.0000000000000000       1.8000000000000000       2.2500000000000000 
     H       0.0000000000000000       3.6000000000000001       3.0000000000000000 
     H       0.0000000000000000       3.6000000000000001       3.7500000000000000 
     H       0.0000000000000000       5.4000000000000004       4.5000000000000000 
     H       0.0000000000000000       5.4000000000000004       5.2500000000000000 
    8

     H       0.0000000000000000       0.0000000000000000       0.0000000000000000 
     H       0.0000000000000000       0.0000000000000000       0.7500000000000000 
     H       0.0000000000000000       1.8999999999999999       1.5000000000000000 
     H       0.0000000000000000       1.8999999999999999       2.2500000000000000 
     H       0.0000000000000000       3.7999999999999998       3.0000000000000000 
     H       0.0000000000000000       3.7999999999999998       3.7500000000000000 
     H       0.0000000000000000       5.6999999999999993       4.5000000000000000 
     H       0.0000000000000000       5.6999999999999993       5.2500000000000000 
    8

     H       0.0000000000000000       0.0000000000000000       0.0000000000000000 
     H       0.0000000000000000       0.0000000000000000       0.7500000000000000 
     H       0.0000000000000000       2.0000000000000000       1.5000000000000000 
     H       0.0000000000000000       2.0000000000000000       2.2500000000000000 
     H       0.0000000000000000       4.0000000000000000       3.0000000000000000 
     H       0.0000000000000000       4.0000000000000000       3.7500000000000000 
     H       0.0000000000000000       6.0000000000000000       4.5000000000000000 
     H       0.0000000000000000       6.0000000000000000       5.2500000000000000 
    8

     H       0.0000000000000000       0.0000000000000000       0.0000000000000000 
     H       0.0000000000000000       0.0000000000000000       0.7500000000000000 
     H       0.0000000000000000       2.1000000000000001       1.5000000000000000 
     H       0.0000000000000000       2.1000000000000001       2.2500000000000000 
     H       0.0000000000000000       4.2000000000000002       3.0000000000000000 
     H       0.0000000000000000       4.2000000000000002       3.7500000000000000 
     H       0.0000000000000000       6.3000000000000007       4.5000000000000000 
     H       0.0000000000000000       6.3000000000000007       5.2500000000000000 
    8

     H       0.0000000000000000       0.0000000000000000       0.0000000000000000 
     H       0.0000000000000000       0.0000000000000000       0.7500000000000000 
     H       0.0000000000000000       2.2000000000000002       1.5000000000000000 
     H       0.0000000000000000       2.2000000000000002       2.2500000000000000 
     H       0.0000000000000000       4.4000000000000004       3.0000000000000000 
     H       0.0000000000000000       4.4000000000000004       3.7500000000000000 
     H       0.0000000000000000       6.6000000000000005       4.5000000000000000 
     H       0.0000000000000000       6.6000000000000005       5.2500000000000000 
    8

     H       0.0000000000000000       0.0000000000000000       0.0000000000000000 
     H       0.0000000000000000       0.0000000000000000       0.7500000000000000 
     H       0.0000000000000000       2.2999999999999998       1.5000000000000000 
     H       0.0000000000000000       2.2999999999999998       2.2500000000000000 
     H       0.0000000000000000       4.5999999999999996       3.0000000000000000 
     H       0.0000000000000000       4.5999999999999996       3.7500000000000000 
     H       0.0000000000000000       6.8999999999999995       4.5000000000000000 
     H       0.0000000000000000       6.8999999999999995       5.2500000000000000 
    8

     H       0.0000000000000000       0.0000000000000000       0.0000000000000000 
     H       0.0000000000000000       0.0000000000000000       0.7500000000000000 
     H       0.0000000000000000       2.4000000000000004       1.5000000000000000 
     H       0.0000000000000000       2.4000000000000004       2.2500000000000000 
     H       0.0000000000000000       4.8000000000000007       3.0000000000000000 
     H       0.0000000000000000       4.8000000000000007       3.7500000000000000 
     H       0.0000000000000000       7.2000000000000011       4.5000000000000000 
     H       0.0000000000000000       7.2000000000000011       5.2500000000000000 
    8

     H       0.0000000000000000       0.0000000000000000       0.0000000000000000 
     H       0.0000000000000000       0.0000000000000000       0.7500000000000000 
     H       0.0000000000000000       2.5000000000000000       1.5000000000000000 
     H       0.0000000000000000       2.5000000000000000       2.2500000000000000 
     H       0.0000000000000000       5.0000000000000000       3.0000000000000000 
     H       0.0000000000000000       5.0000000000000000       3.7500000000000000 
     H       0.0000000000000000       7.5000000000000000       4.5000000000000000 
     H       0.0000000000000000       7.5000000000000000       5.2500000000000000 
    8

     H       0.0000000000000000       0.0000000000000000       0.0000000000000000 
     H       0.0000000000000000       0.0000000000000000       0.7500000000000000 
     H       0.0000000000000000       2.6000000000000001       1.5000000000000000 
     H       0.0000000000000000       2.6000000000000001       2.2500000000000000 
     H       0.0000000000000000       5.2000000000000002       3.0000000000000000 
     H       0.0000000000000000       5.2000000000000002       3.7500000000000000 
     H       0.0000000000000000       7.8000000000000007       4.5000000000000000 
     H       0.0000000000000000       7.8000000000000007       5.2500000000000000 
    8

     H       0.0000000000000000       0.0000000000000000       0.0000000000000000 
     H       0.0000000000000000       0.0000000000000000       0.7500000000000000 
     H       0.0000000000000000       2.7000000000000002       1.5000000000000000 
     H       0.0000000000000000       2.7000000000000002       2.2500000000000000 
     H       0.0000000000000000       5.4000000000000004       3.0000000000000000 
     H       0.0000000000000000       5.4000000000000004       3.7500000000000000 
     H       0.0000000000000000       8.1000000000000014       4.5000000000000000 
     H       0.0000000000000000       8.1000000000000014       5.2500000000000000 
    8

     H       0.0000000000000000       0.0000000000000000       0.0000000000000000 
     H       0.0000000000000000       0.0000000000000000       0.7500000000000000 
     H       0.0000000000000000       2.7999999999999998       1.5000000000000000 
     H       0.0000000000000000       2.7999999999999998       2.2500000000000000 
     H       0.0000000000000000       5.5999999999999996       3.0000000000000000 
     H       0.0000000000000000       5.5999999999999996       3.7500000000000000 
     H       0.0000000000000000       8.3999999999999986       4.5000000000000000 
     H       0.0000000000000000       8.3999999999999986       5.2500000000000000 
    8

     H       0.0000000000000000       0.0000000000000000       0.0000000000000000 
     H       0.0000000000000000       0.0000000000000000       0.7500000000000000 
     H       0.0000000000000000       2.9000000000000004       1.5000000000000000 
     H       0.0000000000000000       2.9000000000000004       2.2500000000000000 
     H       0.0000000000000000       5.8000000000000007       3.0000000000000000 
     H       0.0000000000000000       5.8000000000000007       3.7500000000000000 
     H       0.0000000000000000       8.7000000000000011       4.5000000000000000 
     H       0.0000000000000000       8.7000000000000011       5.2500000000000000 
    8

     H       0.0000000000000000       0.0000000000000000       0.0000000000000000 
     H       0.0000000000000000       0.0000000000000000       0.7500000000000000 
     H       0.0000000000000000       3.0000000000000000       1.5000000000000000 
     H       0.0000000000000000       3.0000000000000000       2.2500000000000000 
     H       0.0000000000000000       6.0000000000000000       3.0000000000000000 
     H       0.0000000000000000       6.0000000000000000       3.7500000000000000 
     H       0.0000000000000000       9.0000000000000000       4.5000000000000000 
     H       0.0000000000000000       9.0000000000000000       5.2500000000000000 
    8

     H       0.0000000000000000       0.0000000000000000       0.0000000000000000 
     H       0.0000000000000000       0.0000000000000000       0.7500000000000000 
     H       0.0000000000000000       3.1000000000000001       1.5000000000000000 
     H       0.0000000000000000       3.1000000000000001       2.2500000000000000 
     H       0.0000000000000000       6.2000000000000002       3.0000000000000000 
     H       0.0000000000000000       6.2000000000000002       3.7500000000000000 
     H       0.0000000000000000       9.3000000000000007       4.5000000000000000 
     H       0.0000000000000000       9.3000000000000007       5.2500000000000000 
    8

     H       0.0000000000000000       0.0000000000000000       0.0000000000000000 
     H       0.0000000000000000       0.0000000000000000       0.7500000000000000 
     H       0.0000000000000000       3.2000000000000002       1.5000000000000000 
     H       0.0000000000000000       3.2000000000000002       2.2500000000000000 
     H       0.0000000000000000       6.4000000000000004       3.0000000000000000 
     H       0.0000000000000000       6.4000000000000004       3.7500000000000000 
     H       0.0000000000000000       9.6000000000000014       4.5000000000000000 
     H       0.0000000000000000       9.6000000000000014       5.2500000000000000 
    8

     H       0.0000000000000000       0.0000000000000000       0.0000000000000000 
     H       0.0000000000000000       0.0000000000000000       0.7500000000000000 
     H       0.0000000000000000       3.3000000000000003       1.5000000000000000 
     H       0.0000000000000000       3.3000000000000003       2.2500000000000000 
     H       0.0000000000000000       6.6000000000000005       3.0000000000000000 
     H       0.0000000000000000       6.6000000000000005       3.7500000000000000 
     H       0.0000000000000000       9.9000000000000004       4.5000000000000000 
     H       0.0000000000000000       9.9000000000000004       5.2500000000000000 
    8

     H       0.0000000000000000       0.0000000000000000       0.0000000000000000 
     H       0.0000000000000000       0.0000000000000000       0.7500000000000000 
     H       0.0000000000000000       3.4000000000000004       1.5000000000000000 
     H       0.0000000000000000       3.4000000000000004       2.2500000000000000 
     H       0.0000000000000000       6.8000000000000007       3.0000000000000000 
     H       0.0000000000000000       6.8000000000000007       3.7500000000000000 
     H       0.0000000000000000      10.2000000000000011       4.5000000000000000 
     H       0.0000000000000000      10.2000000000000011       5.2500000000000000 
    8

     H       0.0000000000000000       0.0000000000000000       0.0000000000000000 
     H       0.0000000000000000       0.0000000000000000       0.7500000000000000 
     H       0.0000000000000000       3.5000000000000000       1.5000000000000000 
     H       0.0000000000000000       3.5000000000000000       2.2500000000000000 
     H       0.0000000000000000       7.0000000000000000       3.0000000000000000 
     H       0.0000000000000000       7.0000000000000000       3.7500000000000000 
     H       0.0000000000000000      10.5000000000000000       4.5000000000000000 
     H       0.0000000000000000      10.5000000000000000       5.2500000000000000 
    8

     H       0.0000000000000000       0.0000000000000000       0.0000000000000000 
     H       0.0000000000000000       0.0000000000000000       0.7500000000000000 
     H       0.0000000000000000       3.6000000000000001       1.5000000000000000 
     H       0.0000000000000000       3.6000000000000001       2.2500000000000000 
     H       0.0000000000000000       7.2000000000000002       3.0000000000000000 
     H       0.0000000000000000       7.2000000000000002       3.7500000000000000 
     H       0.0000000000000000      10.8000000000000007       4.5000000000000000 
     H       0.0000000000000000      10.8000000000000007       5.2500000000000000 
    8

     H       0.0000000000000000       0.0000000000000000       0.0000000000000000 
     H       0.0000000000000000       0.0000000000000000       0.7500000000000000 
     H       0.0000000000000000       3.7000000000000002       1.5000000000000000 
     H       0.0000000000000000       3.7000000000000002       2.2500000000000000 
     H       0.0000000000000000       7.4000000000000004       3.0000000000000000 
     H       0.0000000000000000       7.4000000000000004       3.7500000000000000 
     H       0.0000000000000000      11.1000000000000014       4.5000000000000000 
     H       0.0000000000000000      11.1000000000000014       5.2500000000000000 
    8

     H       0.0000000000000000       0.0000000000000000       0.0000000000000000 
     H       0.0000000000000000       0.0000000000000000       0.7500000000000000 
     H       0.0000000000000000       3.8000000000000003       1.5000000000000000 
     H       0.0000000000000000       3.8000000000000003       2.2500000000000000 
     H       0.0000000000000000       7.6000000000000005       3.0000000000000000 
     H       0.0000000000000000       7.6000000000000005       3.7500000000000000 
     H       0.0000000000000000      11.4000000000000004       4.5000000000000000 
     H       0.0000000000000000      11.4000000000000004       5.2500000000000000 
    8

     H       0.0000000000000000       0.0000000000000000       0.0000000000000000 
     H       0.0000000000000000       0.0000000000000000       0.7500000000000000 
     H       0.0000000000000000       3.9000000000000004       1.5000000000000000 
     H       0.0000000000000000       3.9000000000000004       2.2500000000000000 
     H       0.0000000000000000       7.8000000000000007       3.0000000000000000 
     H       0.0000000000000000       7.8000000000000007       3.7500000000000000 
     H       0.0000000000000000      11.7000000000000011       4.5000000000000000 
     H       0.0000000000000000      11.7000000000000011       5.2500000000000000 
    8

     H       0.0000000000000000       0.0000000000000000       0.0000000000000000 
     H       0.0000000000000000       0.0000000000000000       0.7500000000000000 
     H       0.0000000000000000       4.0000000000000000       1.5000000000000000 
     H       0.0000000000000000       4.0000000000000000       2.2500000000000000 
     H       0.0000000000000000       8.0000000000000000       3.0000000000000000 
     H       0.0000000000000000       8.0000000000000000       3.7500000000000000 
     H       0.0000000000000000      12.0000000000000000       4.5000000000000000 
     H       0.0000000000000000      12.0000000000000000       5.2500000000000000 
    8

     H       0.0000000000000000       0.0000000000000000       0.0000000000000000 
     H       0.0000000000000000       0.0000000000000000       0.7500000000000000 
     H       0.0000000000000000       4.0999999999999996       1.5000000000000000 
     H       0.0000000000000000       4.0999999999999996       2.2500000000000000 
     H       0.0000000000000000       8.1999999999999993       3.0000000000000000 
     H       0.0000000000000000       8.1999999999999993       3.7500000000000000 
     H       0.0000000000000000      12.2999999999999989       4.5000000000000000 
     H       0.0000000000000000      12.2999999999999989       5.2500000000000000 
    8

     H       0.0000000000000000       0.0000000000000000       0.0000000000000000 
     H       0.0000000000000000       0.0000000000000000       0.7500000000000000 
     H       0.0000000000000000       4.2000000000000002       1.5000000000000000 
     H       0.0000000000000000       4.2000000000000002       2.2500000000000000 
     H       0.0000000000000000       8.4000000000000004       3.0000000000000000 
     H       0.0000000000000000       8.4000000000000004       3.7500000000000000 
     H       0.0000000000000000      12.6000000000000014       4.5000000000000000 
     H       0.0000000000000000      12.6000000000000014       5.2500000000000000 
    8

     H       0.0000000000000000       0.0000000000000000       0.0000000000000000 
     H       0.0000000000000000       0.0000000000000000       0.7500000000000000 
     H       0.0000000000000000       4.3000000000000007       1.5000000000000000 
     H       0.0000000000000000       4.3000000000000007       2.2500000000000000 
     H       0.0000000000000000       8.6000000000000014       3.0000000000000000 
     H       0.0000000000000000       8.6000000000000014       3.7500000000000000 
     H       0.0000000000000000      12.9000000000000021       4.5000000000000000 
     H       0.0000000000000000      12.9000000000000021       5.2500000000000000 
    8

     H       0.0000000000000000       0.0000000000000000       0.0000000000000000 
     H       0.0000000000000000       0.0000000000000000       0.7500000000000000 
     H       0.0000000000000000       4.4000000000000004       1.5000000000000000 
     H       0.0000000000000000       4.4000000000000004       2.2500000000000000 
     H       0.0000000000000000       8.8000000000000007       3.0000000000000000 
     H       0.0000000000000000       8.8000000000000007       3.7500000000000000 
     H       0.0000000000000000      13.2000000000000011       4.5000000000000000 
     H       0.0000000000000000      13.2000000000000011       5.2500000000000000 
    8

     H       0.0000000000000000       0.0000000000000000       0.0000000000000000 
     H       0.0000000000000000       0.0000000000000000       0.7500000000000000 
     H       0.0000000000000000       4.5000000000000000       1.5000000000000000 
     H       0.0000000000000000       4.5000000000000000       2.2500000000000000 
     H       0.0000000000000000       9.0000000000000000       3.0000000000000000 
     H       0.0000000000000000       9.0000000000000000       3.7500000000000000 
     H       0.0000000000000000      13.5000000000000000       4.5000000000000000 
     H       0.0000000000000000      13.5000000000000000       5.2500000000000000 
    8

     H       0.0000000000000000       0.0000000000000000       0.0000000000000000 
     H       0.0000000000000000       0.0000000000000000       0.7500000000000000 
     H       0.0000000000000000       4.5999999999999996       1.5000000000000000 
     H       0.0000000000000000       4.5999999999999996       2.2500000000000000 
     H       0.0000000000000000       9.1999999999999993       3.0000000000000000 
     H       0.0000000000000000       9.1999999999999993       3.7500000000000000 
     H       0.0000000000000000      13.7999999999999989       4.5000000000000000 
     H       0.0000000000000000      13.7999999999999989       5.2500000000000000 
    8

     H       0.0000000000000000       0.0000000000000000       0.0000000000000000 
     H       0.0000000000000000       0.0000000000000000       0.7500000000000000 
     H       0.0000000000000000       4.7000000000000002       1.5000000000000000 
     H       0.0000000000000000       4.7000000000000002       2.2500000000000000 
     H       0.0000000000000000       9.4000000000000004       3.0000000000000000 
     H       0.0000000000000000       9.4000000000000004       3.7500000000000000 
     H       0.0000000000000000      14.1000000000000014       4.5000000000000000 
     H       0.0000000000000000      14.1000000000000014       5.2500000000000000 
    8

     H       0.0000000000000000       0.0000000000000000       0.0000000000000000 
     H       0.0000000000000000       0.0000000000000000       0.7500000000000000 
     H       0.0000000000000000       4.8000000000000007       1.5000000000000000 
     H       0.0000000000000000       4.8000000000000007       2.2500000000000000 
     H       0.0000000000000000       9.6000000000000014       3.0000000000000000 
     H       0.0000000000000000       9.6000000000000014       3.7500000000000000 
     H       0.0000000000000000      14.4000000000000021       4.5000000000000000 
     H       0.0000000000000000      14.4000000000000021       5.2500000000000000 
    8

     H       0.0000000000000000       0.0000000000000000       0.0000000000000000 
     H       0.0000000000000000       0.0000000000000000       0.7500000000000000 
     H       0.0000000000000000       4.9000000000000004       1.5000000000000000 
     H       0.0000000000000000       4.9000000000000004       2.2500000000000000 
     H       0.0000000000000000       9.8000000000000007       3.0000000000000000 
     H       0.0000000000000000       9.8000000000000007       3.7500000000000000 
     H       0.0000000000000000      14.7000000000000011       4.5000000000000000 
     H       0.0000000000000000      14.7000000000000011       5.2500000000000000 
    8

     H       0.0000000000000000       0.0000000000000000       0.0000000000000000 
     H       0.0000000000000000       0.0000000000000000       0.7500000000000000 
     H       0.0000000000000000       5.0000000000000000       1.5000000000000000 
     H       0.0000000000000000       5.0000000000000000       2.2500000000000000 
     H       0.0000000000000000      10.0000000000000000       3.0000000000000000 
     H       0.0000000000000000      10.0000000000000000       3.7500000000000000 
     H       0.0000000000000000      15.0000000000000000       4.5000000000000000 
     H       0.0000000000000000      15.0000000000000000       5.2500000000000000 
    8

     H       0.0000000000000000       0.0000000000000000       0.0000000000000000 
     H       0.0000000000000000       0.0000000000000000       0.7500000000000000 
     H       0.0000000000000000       5.1000000000000005       1.5000000000000000 
     H       0.0000000000000000       5.1000000000000005       2.2500000000000000 
     H       0.0000000000000000      10.2000000000000011       3.0000000000000000 
     H       0.0000000000000000      10.2000000000000011       3.7500000000000000 
     H       0.0000000000000000      15.3000000000000007       4.5000000000000000 
     H       0.0000000000000000      15.3000000000000007       5.2500000000000000 
    8

     H       0.0000000000000000       0.0000000000000000       0.0000000000000000 
     H       0.0000000000000000       0.0000000000000000       0.7500000000000000 
     H       0.0000000000000000       5.2000000000000002       1.5000000000000000 
     H       0.0000000000000000       5.2000000000000002       2.2500000000000000 
     H       0.0000000000000000      10.4000000000000004       3.0000000000000000 
     H       0.0000000000000000      10.4000000000000004       3.7500000000000000 
     H       0.0000000000000000      15.6000000000000014       4.5000000000000000 
     H       0.0000000000000000      15.6000000000000014       5.2500000000000000 
    8

     H       0.0000000000000000       0.0000000000000000       0.0000000000000000 
     H       0.0000000000000000       0.0000000000000000       0.7500000000000000 
     H       0.0000000000000000       5.2999999999999998       1.5000000000000000 
     H       0.0000000000000000       5.2999999999999998       2.2500000000000000 
     H       0.0000000000000000      10.5999999999999996       3.0000000000000000 
     H       0.0000000000000000      10.5999999999999996       3.7500000000000000 
     H       0.0000000000000000      15.8999999999999986       4.5000000000000000 
     H       0.0000000000000000      15.8999999999999986       5.2500000000000000 
    8

     H       0.0000000000000000       0.0000000000000000       0.0000000000000000 
     H       0.0000000000000000       0.0000000000000000       0.7500000000000000 
     H       0.0000000000000000       5.4000000000000004       1.5000000000000000 
     H       0.0000000000000000       5.4000000000000004       2.2500000000000000 
     H       0.0000000000000000      10.8000000000000007       3.0000000000000000 
     H       0.0000000000000000      10.8000000000000007       3.7500000000000000 
     H       0.0000000000000000      16.2000000000000028       4.5000000000000000 
     H       0.0000000000000000      16.2000000000000028       5.2500000000000000 
    8

     H       0.0000000000000000       0.0000000000000000       0.0000000000000000 
     H       0.0000000000000000       0.0000000000000000       0.7500000000000000 
     H       0.0000000000000000       5.5000000000000000       1.5000000000000000 
     H       0.0000000000000000       5.5000000000000000       2.2500000000000000 
     H       0.0000000000000000      11.0000000000000000       3.0000000000000000 
     H       0.0000000000000000      11.0000000000000000       3.7500000000000000 
     H       0.0000000000000000      16.5000000000000000       4.5000000000000000 
     H       0.0000000000000000      16.5000000000000000       5.2500000000000000 
    8

     H       0.0000000000000000       0.0000000000000000       0.0000000000000000 
     H       0.0000000000000000       0.0000000000000000       0.7500000000000000 
     H       0.0000000000000000       5.6000000000000005       1.5000000000000000 
     H       0.0000000000000000       5.6000000000000005       2.2500000000000000 
     H       0.0000000000000000      11.2000000000000011       3.0000000000000000 
     H       0.0000000000000000      11.2000000000000011       3.7500000000000000 
     H       0.0000000000000000      16.8000000000000007       4.5000000000000000 
     H       0.0000000000000000      16.8000000000000007       5.2500000000000000 
    8

     H       0.0000000000000000       0.0000000000000000       0.0000000000000000 
     H       0.0000000000000000       0.0000000000000000       0.7500000000000000 
     H       0.0000000000000000       5.7000000000000002       1.5000000000000000 
     H       0.0000000000000000       5.7000000000000002       2.2500000000000000 
     H       0.0000000000000000      11.4000000000000004       3.0000000000000000 
     H       0.0000000000000000      11.4000000000000004       3.7500000000000000 
     H       0.0000000000000000      17.1000000000000014       4.5000000000000000 
     H       0.0000000000000000      17.1000000000000014       5.2500000000000000 
    8

     H       0.0000000000000000       0.0000000000000000       0.0000000000000000 
     H       0.0000000000000000       0.0000000000000000       0.7500000000000000 
     H       0.0000000000000000       5.8000000000000007       1.5000000000000000 
     H       0.0000000000000000       5.8000000000000007       2.2500000000000000 
     H       0.0000000000000000      11.6000000000000014       3.0000000000000000 
     H       0.0000000000000000      11.6000000000000014       3.7500000000000000 
     H       0.0000000000000000      17.4000000000000021       4.5000000000000000 
     H       0.0000000000000000      17.4000000000000021       5.2500000000000000 
    8

     H       0.0000000000000000       0.0000000000000000       0.0000000000000000 
     H       0.0000000000000000       0.0000000000000000       0.7500000000000000 
     H       0.0000000000000000       5.9000000000000004       1.5000000000000000 
     H       0.0000000000000000       5.9000000000000004       2.2500000000000000 
     H       0.0000000000000000      11.8000000000000007       3.0000000000000000 
     H       0.0000000000000000      11.8000000000000007       3.7500000000000000 
     H       0.0000000000000000      17.7000000000000028       4.5000000000000000 
     H       0.0000000000000000      17.7000000000000028       5.2500000000000000 
    8

     H       0.0000000000000000       0.0000000000000000       0.0000000000000000 
     H       0.0000000000000000       0.0000000000000000       0.7500000000000000 
     H       0.0000000000000000       6.0000000000000000       1.5000000000000000 
     H       0.0000000000000000       6.0000000000000000       2.2500000000000000 
     H       0.0000000000000000      12.0000000000000000       3.0000000000000000 
     H       0.0000000000000000      12.0000000000000000       3.7500000000000000 
     H       0.0000000000000000      18.0000000000000000       4.5000000000000000 
     H       0.0000000000000000      18.0000000000000000       5.2500000000000000 
